CHEMBL1580
     RDKit          2D

 19 21  0  0  0  0  0  0  0  0999 V2000
    8.1219    4.2296    0.0000 O   0  0  0  0  0  0  0  0  0  0  0  0
    6.7024    4.7144    0.0000 C   0  0  0  0  0  0  0  0  0  0  0  0
    5.5728    3.7275    0.0000 C   0  0  0  0  0  0  0  0  0  0  0  0
    4.1104    4.0613    0.0000 O   0  0  0  0  0  0  0  0  0  0  0  0
    3.3411    2.7736    0.0000 C   0  0  0  0  0  0  0  0  0  0  0  0
    1.8471    2.6391    0.0000 N   0  0  0  0  0  0  0  0  0  0  0  0
    0.8602    3.7687    0.0000 C   0  0  0  0  0  0  0  0  0  0  0  0
   -0.5191    3.1792    0.0000 N   0  0  0  0  0  0  0  0  0  0  0  0
   -0.3846    1.6852    0.0000 C   0  0  0  0  0  0  0  0  0  0  0  0
    1.0777    1.3515    0.0000 C   0  0  0  0  0  0  0  0  0  0  0  0
    1.7286    0.0000    0.0000 N   0  0  0  0  0  0  0  0  0  0  0  0
    1.0777   -1.3515    0.0000 C   0  0  0  0  0  0  0  0  0  0  0  0
   -0.3846   -1.6852    0.0000 N   0  0  0  0  0  0  0  0  0  0  0  0
   -1.5574   -0.7500    0.0000 C   0  0  0  0  0  0  0  0  0  0  0  0
   -1.5574    0.7500    0.0000 C   0  0  0  0  0  0  0  0  0  0  0  0
   -2.9088    1.4008    0.0000 O   0  0  0  0  0  0  0  0  0  0  0  0
    4.3280    1.6440    0.0000 C   0  0  0  0  0  0  0  0  0  0  0  0
    5.7073    2.2335    0.0000 C   0  0  0  0  0  0  0  0  0  0  0  0
    6.9949    1.4642    0.0000 O   0  0  0  0  0  0  0  0  0  0  0  0
  1  2  1  0
  3  2  1  6
  3  4  1  0
  4  5  1  0
  5  6  1  6
  6  7  1  0
  7  8  2  0
  8  9  1  0
  9 10  2  0
 10 11  1  0
 11 12  2  0
 12 13  1  0
 13 14  1  0
 14 15  1  0
 15 16  1  1
  5 17  1  0
 17 18  1  0
 18 19  1  1
 18  3  1  0
 10  6  1  0
 15  9  1  0
M  END
$$$$
