CHEMBL45816
     RDKit          2D

 36 39  0  0  0  0  0  0  0  0999 V2000
   -5.4996   -8.3906    0.0000 C   0  0  0  0  0  0  0  0  0  0  0  0
   -4.0900   -7.8776    0.0000 O   0  0  0  0  0  0  0  0  0  0  0  0
   -3.8296   -6.4004    0.0000 C   0  0  0  0  0  0  0  0  0  0  0  0
   -2.4200   -5.8874    0.0000 C   0  0  0  0  0  0  0  0  0  0  0  0
   -1.2709   -6.8515    0.0000 O   0  0  0  0  0  0  0  0  0  0  0  0
   -2.1595   -4.4101    0.0000 O   0  0  0  0  0  0  0  0  0  0  0  0
   -0.7500   -3.8971    0.0000 C   0  0  0  0  0  0  0  0  0  0  0  0
   -0.4895   -5.3743    0.0000 C   0  0  0  0  0  0  0  0  0  0  0  0
    0.9200   -5.8874    0.0000 C   0  0  0  0  0  0  0  0  0  0  0  0
    1.1805   -7.3646    0.0000 N   0  0  0  0  0  0  0  0  0  0  0  0
    2.5900   -7.8776    0.0000 C   0  0  0  0  0  0  0  0  0  0  0  0
    0.0314   -8.3287    0.0000 C   0  0  0  0  0  0  0  0  0  0  0  0
    0.2919   -9.8060    0.0000 C   0  0  0  0  0  0  0  0  0  0  0  0
   -0.8572  -10.7701    0.0000 C   0  0  0  0  0  0  0  0  0  0  0  0
   -0.5967  -12.2474    0.0000 C   0  0  0  0  0  0  0  0  0  0  0  0
    0.7515  -12.9049    0.0000 N   0  0  0  0  0  0  0  0  0  0  0  0
    0.5427  -14.3903    0.0000 C   0  0  0  0  0  0  0  0  0  0  0  0
    1.5069  -15.5394    0.0000 C   0  0  0  0  0  0  0  0  0  0  0  0
    0.9939  -16.9489    0.0000 C   0  0  0  0  0  0  0  0  0  0  0  0
   -0.4833  -17.2094    0.0000 C   0  0  0  0  0  0  0  0  0  0  0  0
   -1.4475  -16.0603    0.0000 C   0  0  0  0  0  0  0  0  0  0  0  0
   -0.9345  -14.6508    0.0000 C   0  0  0  0  0  0  0  0  0  0  0  0
   -1.6387  -13.3264    0.0000 N   0  0  0  0  0  0  0  0  0  0  0  0
    0.7500   -3.8971    0.0000 C   0  0  0  0  0  0  0  0  0  0  0  0
    1.5000   -2.5981    0.0000 C   0  0  0  0  0  0  0  0  0  0  0  0
    0.7500   -1.2990    0.0000 C   0  0  0  0  0  0  0  0  0  0  0  0
    1.5000    0.0000    0.0000 C   0  0  0  0  0  0  0  0  0  0  0  0
    0.7500    1.2990    0.0000 C   0  0  0  0  0  0  0  0  0  0  0  0
    1.5000    2.5981    0.0000 F   0  0  0  0  0  0  0  0  0  0  0  0
   -0.7500    1.2990    0.0000 C   0  0  0  0  0  0  0  0  0  0  0  0
   -1.5000    0.0000    0.0000 C   0  0  0  0  0  0  0  0  0  0  0  0
   -0.7500   -1.2990    0.0000 C   0  0  0  0  0  0  0  0  0  0  0  0
   -1.5000   -2.5981    0.0000 C   0  0  0  0  0  0  0  0  0  0  0  0
   -3.0000   -2.5981    0.0000 C   0  0  0  0  0  0  0  0  0  0  0  0
   -3.7500   -3.8971    0.0000 C   0  0  0  0  0  0  0  0  0  0  0  0
   -3.7500   -1.2990    0.0000 C   0  0  0  0  0  0  0  0  0  0  0  0
  1  2  1  0
  2  3  1  0
  3  4  1  0
  4  5  2  0
  4  6  1  0
  6  7  1  0
  7  8  1  6
  8  9  1  0
  9 10  1  0
 10 11  1  0
 10 12  1  0
 12 13  1  0
 13 14  1  0
 14 15  1  0
 15 16  2  0
 16 17  1  0
 17 18  2  0
 18 19  1  0
 19 20  2  0
 20 21  1  0
 21 22  2  0
 22 23  1  0
  7 24  1  0
 24 25  1  0
 25 26  1  0
 26 27  2  0
 27 28  1  0
 28 29  1  0
 28 30  2  0
 30 31  1  0
 31 32  2  0
 32 33  1  0
 33 34  1  1
 34 35  1  0
 34 36  1  0
 33  7  1  0
 23 15  1  0
 32 26  1  0
 22 17  1  0
M  END
$$$$
