CHEMBL174
     RDKit          2D

 24 26  0  0  0  0  0  0  0  0999 V2000
    2.3907    1.0037    0.0000 C   0  0  0  0  0  0  0  0  0  0  0  0
    1.2760    0.0000    0.0000 C   0  0  0  0  0  0  0  0  0  0  0  0
    2.3907   -1.0037    0.0000 C   0  0  0  0  0  0  0  0  0  0  0  0
    0.3943    1.2135    0.0000 S   0  0  0  0  0  0  0  0  0  0  0  0
   -1.0323    0.7500    0.0000 C   0  0  0  0  0  0  0  0  0  0  0  0
   -2.5323    0.7500    0.0000 C   0  0  0  0  0  0  0  0  0  0  0  0
   -3.5929    1.8107    0.0000 N   0  0  0  0  0  0  0  0  0  0  0  0
   -3.2047    3.2595    0.0000 C   0  0  0  0  0  0  0  0  0  0  0  0
   -1.7558    3.6478    0.0000 O   0  0  0  0  0  0  0  0  0  0  0  0
   -4.2654    4.3202    0.0000 C   0  0  0  0  0  0  0  0  0  0  0  0
   -5.7143    3.9320    0.0000 N   0  0  0  0  0  0  0  0  0  0  0  0
   -3.8771    5.7691    0.0000 C   0  0  0  0  0  0  0  0  0  0  0  0
   -2.4283    6.1573    0.0000 C   0  0  0  0  0  0  0  0  0  0  0  0
   -2.0400    7.6062    0.0000 C   0  0  0  0  0  0  0  0  0  0  0  0
   -3.1007    8.6669    0.0000 C   0  0  0  0  0  0  0  0  0  0  0  0
   -4.5496    8.2786    0.0000 C   0  0  0  0  0  0  0  0  0  0  0  0
   -4.9378    6.8298    0.0000 C   0  0  0  0  0  0  0  0  0  0  0  0
   -2.5323   -0.7500    0.0000 C   0  0  0  0  0  0  0  0  0  0  0  0
   -3.5929   -1.8107    0.0000 O   0  0  0  0  0  0  0  0  0  0  0  0
   -1.0323   -0.7500    0.0000 N   0  0  0  0  0  0  0  0  0  0  0  0
    0.3943   -1.2135    0.0000 C   0  0  0  0  0  0  0  0  0  0  0  0
    0.8578   -2.6401    0.0000 C   0  0  0  0  0  0  0  0  0  0  0  0
    2.3250   -2.9520    0.0000 O   0  0  0  0  0  0  0  0  0  0  0  0
   -0.1459   -3.7548    0.0000 O   0  0  0  0  0  0  0  0  0  0  0  0
  1  2  1  0
  2  3  1  0
  2  4  1  0
  5  4  1  1
  5  6  1  0
  6  7  1  1
  7  8  1  0
  8  9  2  0
  8 10  1  0
 10 11  1  6
 10 12  1  0
 12 13  2  0
 13 14  1  0
 14 15  2  0
 15 16  1  0
 16 17  2  0
  6 18  1  0
 18 19  2  0
 18 20  1  0
 20 21  1  0
 21 22  1  6
 22 23  2  0
 22 24  1  0
 21  2  1  0
 20  5  1  0
 17 12  1  0
M  END
$$$$
