CHEMBL2016757
     RDKit          2D

 21 23  0  0  0  0  0  0  0  0999 V2000
   -3.2638   -0.2547    0.0000 N   0  0  0  0  0  0  0  0  0  0  0  0
   -2.9520   -1.7219    0.0000 C   0  0  0  0  0  0  0  0  0  0  0  0
   -2.6401   -3.1891    0.0000 C   0  0  0  0  0  0  0  0  0  0  0  0
   -1.2135   -2.7256    0.0000 C   0  0  0  0  0  0  0  0  0  0  0  0
   -0.0000   -3.6073    0.0000 C   0  0  0  0  0  0  0  0  0  0  0  0
    1.2135   -2.7256    0.0000 C   0  0  0  0  0  0  0  0  0  0  0  0
    0.7500   -1.2990    0.0000 C   0  0  0  0  0  0  0  0  0  0  0  0
    1.5000    0.0000    0.0000 C   0  0  0  0  0  0  0  0  0  0  0  0
    3.0000    0.0000    0.0000 N   0  0  0  0  0  0  0  0  0  0  0  0
    0.7500    1.2990    0.0000 N   0  0  0  0  0  0  0  0  0  0  0  0
   -0.7500    1.2990    0.0000 C   0  0  0  0  0  0  0  0  0  0  0  0
   -1.5000    0.0000    0.0000 N   0  0  0  0  0  0  0  0  0  0  0  0
   -0.7500   -1.2990    0.0000 N   0  0  0  0  0  0  0  0  0  0  0  0
   -4.1319   -3.3459    0.0000 O   0  0  0  0  0  0  0  0  0  0  0  0
   -4.4438   -4.8132    0.0000 C   0  0  0  0  0  0  0  0  0  0  0  0
   -5.8141   -5.4233    0.0000 C   0  0  0  0  0  0  0  0  0  0  0  0
   -7.0276   -4.5416    0.0000 O   0  0  0  0  0  0  0  0  0  0  0  0
   -3.1447   -5.5632    0.0000 C   0  0  0  0  0  0  0  0  0  0  0  0
   -2.9879   -7.0549    0.0000 O   0  0  0  0  0  0  0  0  0  0  0  0
   -2.0300   -4.5595    0.0000 C   0  0  0  0  0  0  0  0  0  0  0  0
   -0.5628   -4.8713    0.0000 O   0  0  0  0  0  0  0  0  0  0  0  0
  1  2  3  0
  3  2  1  6
  3  4  1  0
  4  5  2  0
  5  6  1  0
  6  7  2  0
  7  8  1  0
  8  9  1  0
  8 10  2  0
 10 11  1  0
 11 12  2  0
 12 13  1  0
  3 14  1  0
 14 15  1  0
 15 16  1  1
 16 17  1  0
 15 18  1  0
 18 19  1  6
 18 20  1  0
 20 21  1  6
 20  3  1  0
 13  4  1  0
 13  7  1  0
M  END
$$$$
