CHEMBL415690
     RDKit          2D

 77 84  0  0  0  0  0  0  0  0999 V2000
    8.7226   -2.5403    0.0000 O   0  0  0  0  0  0  0  0  0  0  0  0
    7.2828   -2.9609    0.0000 C   0  0  0  0  0  0  0  0  0  0  0  0
    6.9272   -4.4182    0.0000 C   0  0  0  0  0  0  0  0  0  0  0  0
    5.4440   -4.1946    0.0000 O   0  0  0  0  0  0  0  0  0  0  0  0
    3.9446   -4.2395    0.0000 C   0  0  0  0  0  0  0  0  0  0  0  0
    2.6345   -3.5090    0.0000 O   0  0  0  0  0  0  0  0  0  0  0  0
    0.7500   -1.2990    0.0000 C   0  0  0  0  0  0  0  0  0  0  0  0
    1.5000    0.0000    0.0000 C   0  0  0  0  0  0  0  0  0  0  0  0
    3.0000    0.0000    0.0000 O   0  0  0  0  0  0  0  0  0  0  0  0
    0.7500    1.2990    0.0000 C   0  0  0  0  0  0  0  0  0  0  0  0
    1.5000    2.5981    0.0000 O   0  0  0  0  0  0  0  0  0  0  0  0
   -0.7500    1.2990    0.0000 C   0  0  0  0  0  0  0  0  0  0  0  0
   -0.9957    2.7788    0.0000 O   0  0  0  0  0  0  0  0  0  0  0  0
   -0.9733    4.2786    0.0000 C   0  0  0  0  0  0  0  0  0  0  0  0
   -0.6834    5.7503    0.0000 C   0  0  0  0  0  0  0  0  0  0  0  0
   -2.1232    6.1710    0.0000 O   0  0  0  0  0  0  0  0  0  0  0  0
   -0.1354    7.1466    0.0000 C   0  0  0  0  0  0  0  0  0  0  0  0
   -1.4770    7.8176    0.0000 O   0  0  0  0  0  0  0  0  0  0  0  0
    0.6531    8.4227    0.0000 C   0  0  0  0  0  0  0  0  0  0  0  0
    1.6568    9.5374    0.0000 O   0  0  0  0  0  0  0  0  0  0  0  0
    2.8434   10.4550    0.0000 C   0  0  0  0  0  0  0  0  0  0  0  0
    4.1748   11.1459    0.0000 C   0  0  0  0  0  0  0  0  0  0  0  0
    3.6060   12.5339    0.0000 O   0  0  0  0  0  0  0  0  0  0  0  0
    5.6082   11.5881    0.0000 C   0  0  0  0  0  0  0  0  0  0  0  0
    5.2963   13.0553    0.0000 O   0  0  0  0  0  0  0  0  0  0  0  0
    7.0974   11.7672    0.0000 C   0  0  0  0  0  0  0  0  0  0  0  0
    8.5948   11.6774    0.0000 O   0  0  0  0  0  0  0  0  0  0  0  0
   10.0520   11.3218    0.0000 C   0  0  0  0  0  0  0  0  0  0  0  0
   11.4223   10.7117    0.0000 C   0  0  0  0  0  0  0  0  0  0  0  0
   12.1528   12.0218    0.0000 O   0  0  0  0  0  0  0  0  0  0  0  0
   12.6617    9.8667    0.0000 C   0  0  0  0  0  0  0  0  0  0  0  0
   13.6143   11.0254    0.0000 O   0  0  0  0  0  0  0  0  0  0  0  0
   13.7302    8.8140    0.0000 C   0  0  0  0  0  0  0  0  0  0  0  0
   14.5937    7.5875    0.0000 O   0  0  0  0  0  0  0  0  0  0  0  0
   15.2242    6.2264    0.0000 C   0  0  0  0  0  0  0  0  0  0  0  0
   15.6016    4.7747    0.0000 C   0  0  0  0  0  0  0  0  0  0  0  0
   17.0813    5.0204    0.0000 O   0  0  0  0  0  0  0  0  0  0  0  0
   15.7137    3.2789    0.0000 C   0  0  0  0  0  0  0  0  0  0  0  0
   17.2135    3.2564    0.0000 O   0  0  0  0  0  0  0  0  0  0  0  0
   15.5569    1.7871    0.0000 C   0  0  0  0  0  0  0  0  0  0  0  0
   15.1362    0.3473    0.0000 O   0  0  0  0  0  0  0  0  0  0  0  0
   14.4653   -0.9943    0.0000 C   0  0  0  0  0  0  0  0  0  0  0  0
   13.5655   -2.1945    0.0000 C   0  0  0  0  0  0  0  0  0  0  0  0
   14.6803   -3.1982    0.0000 O   0  0  0  0  0  0  0  0  0  0  0  0
   12.4660   -3.2148    0.0000 C   0  0  0  0  0  0  0  0  0  0  0  0
   13.3835   -4.4014    0.0000 O   0  0  0  0  0  0  0  0  0  0  0  0
   11.2019   -4.0223    0.0000 C   0  0  0  0  0  0  0  0  0  0  0  0
    9.8139   -4.5911    0.0000 O   0  0  0  0  0  0  0  0  0  0  0  0
    8.3467   -4.9030    0.0000 C   0  0  0  0  0  0  0  0  0  0  0  0
    6.4261   -4.6135    0.0000 C   0  0  0  0  0  0  0  0  0  0  0  0
    6.7577   -6.4452    0.0000 O   0  0  0  0  0  0  0  0  0  0  0  0
    5.8653   -4.5290    0.0000 C   0  0  0  0  0  0  0  0  0  0  0  0
    5.0085   -6.1815    0.0000 O   0  0  0  0  0  0  0  0  0  0  0  0
   12.1016   -2.8221    0.0000 O   0  0  0  0  0  0  0  0  0  0  0  0
   13.2012   -1.8018    0.0000 C   0  0  0  0  0  0  0  0  0  0  0  0
   12.2836   -0.6152    0.0000 C   0  0  0  0  0  0  0  0  0  0  0  0
   12.8524    0.7727    0.0000 O   0  0  0  0  0  0  0  0  0  0  0  0
   15.1795    3.2388    0.0000 O   0  0  0  0  0  0  0  0  0  0  0  0
   15.0674    4.7346    0.0000 C   0  0  0  0  0  0  0  0  0  0  0  0
   13.5676    4.7571    0.0000 C   0  0  0  0  0  0  0  0  0  0  0  0
   12.8371    6.0672    0.0000 O   0  0  0  0  0  0  0  0  0  0  0  0
   12.3599    9.4241    0.0000 O   0  0  0  0  0  0  0  0  0  0  0  0
   11.1206   10.2691    0.0000 C   0  0  0  0  0  0  0  0  0  0  0  0
   10.1679    9.1105    0.0000 C   0  0  0  0  0  0  0  0  0  0  0  0
    8.6881    9.3562    0.0000 O   0  0  0  0  0  0  0  0  0  0  0  0
    5.7661   11.0762    0.0000 O   0  0  0  0  0  0  0  0  0  0  0  0
    4.3327   10.6341    0.0000 C   0  0  0  0  0  0  0  0  0  0  0  0
    4.6446    9.1668    0.0000 C   0  0  0  0  0  0  0  0  0  0  0  0
    3.5299    8.1631    0.0000 O   0  0  0  0  0  0  0  0  0  0  0  0
    0.3632    6.9509    0.0000 O   0  0  0  0  0  0  0  0  0  0  0  0
   -0.1848    5.5546    0.0000 C   0  0  0  0  0  0  0  0  0  0  0  0
    1.1568    4.8837    0.0000 C   0  0  0  0  0  0  0  0  0  0  0  0
    2.4087    5.7100    0.0000 O   0  0  0  0  0  0  0  0  0  0  0  0
   -1.5000    0.0000    0.0000 O   0  0  0  0  0  0  0  0  0  0  0  0
   -0.7500   -1.2990    0.0000 C   0  0  0  0  0  0  0  0  0  0  0  0
   -1.5000   -2.5981    0.0000 C   0  0  0  0  0  0  0  0  0  0  0  0
   -3.0000   -2.5981    0.0000 O   0  0  0  0  0  0  0  0  0  0  0  0
  1  2  1  0
  3  2  1  6
  3  4  1  0
  5  4  1  6
  5  6  1  0
  6  7  1  0
  7  8  1  0
  8  9  1  1
  8 10  1  0
 10 11  1  6
 10 12  1  0
 12 13  1  0
 13 14  1  0
 14 15  1  0
 15 16  1  6
 15 17  1  0
 17 18  1  1
 17 19  1  0
 19 20  1  0
 20 21  1  0
 21 22  1  0
 22 23  1  6
 22 24  1  0
 24 25  1  1
 24 26  1  0
 26 27  1  0
 27 28  1  0
 28 29  1  0
 29 30  1  6
 29 31  1  0
 31 32  1  1
 31 33  1  0
 33 34  1  0
 34 35  1  0
 35 36  1  0
 36 37  1  6
 36 38  1  0
 38 39  1  1
 38 40  1  0
 40 41  1  0
 41 42  1  0
 42 43  1  0
 43 44  1  6
 43 45  1  0
 45 46  1  1
 45 47  1  0
 47 48  1  0
 48 49  1  0
 49 50  1  0
 50 51  1  1
 50 52  1  0
 52 53  1  6
 47 54  1  6
 54 55  1  0
 55 56  1  6
 56 57  1  0
 40 58  1  6
 58 59  1  0
 59 60  1  6
 60 61  1  0
 33 62  1  6
 62 63  1  0
 63 64  1  6
 64 65  1  0
 26 66  1  6
 66 67  1  0
 67 68  1  6
 68 69  1  0
 19 70  1  6
 70 71  1  0
 71 72  1  6
 72 73  1  0
 12 74  1  6
 74 75  1  0
 75 76  1  1
 76 77  1  0
 49  3  1  6
 52  5  1  0
  7 75  1  6
 14 71  1  6
 21 67  1  6
 28 63  1  6
 35 59  1  6
 42 55  1  6
M  END
$$$$
