CHEMBL517712
     RDKit          2D

 21 23  0  0  0  0  0  0  0  0999 V2000
    2.0494    0.1929    0.0000 C   0  0  0  0  0  0  0  0  0  0  0  0
    1.2760    0.0000    0.0000 N   0  0  0  0  0  0  0  0  0  0  0  0
    0.3943    1.2135    0.0000 C   0  0  0  0  0  0  0  0  0  0  0  0
   -1.0323    0.7500    0.0000 C   0  0  0  0  0  0  0  0  0  0  0  0
   -1.0323   -0.7500    0.0000 C   0  0  0  0  0  0  0  0  0  0  0  0
    0.3943   -1.2135    0.0000 C   0  0  0  0  0  0  0  0  0  0  0  0
    1.8943   -1.3846    0.0000 C   0  0  0  0  0  0  0  0  0  0  0  0
    2.6443   -0.0855    0.0000 C   0  0  0  0  0  0  0  0  0  0  0  0
    4.1443   -0.0855    0.0000 O   0  0  0  0  0  0  0  0  0  0  0  0
    4.8943   -1.3846    0.0000 C   0  0  0  0  0  0  0  0  0  0  0  0
    4.1443   -2.6836    0.0000 O   0  0  0  0  0  0  0  0  0  0  0  0
    6.3943   -1.3846    0.0000 C   0  0  0  0  0  0  0  0  0  0  0  0
    7.1443   -0.0855    0.0000 C   0  0  0  0  0  0  0  0  0  0  0  0
    8.6443   -0.0855    0.0000 O   0  0  0  0  0  0  0  0  0  0  0  0
    7.1443   -2.6836    0.0000 C   0  0  0  0  0  0  0  0  0  0  0  0
    6.3943   -3.9826    0.0000 C   0  0  0  0  0  0  0  0  0  0  0  0
    7.1443   -5.2817    0.0000 C   0  0  0  0  0  0  0  0  0  0  0  0
    8.6443   -5.2817    0.0000 C   0  0  0  0  0  0  0  0  0  0  0  0
    9.3943   -3.9826    0.0000 C   0  0  0  0  0  0  0  0  0  0  0  0
    8.6443   -2.6836    0.0000 C   0  0  0  0  0  0  0  0  0  0  0  0
    1.8943    1.2135    0.0000 C   0  0  0  0  0  0  0  0  0  0  0  0
  1  2  1  0
  2  3  1  0
  3  4  1  6
  4  5  1  0
  6  5  1  6
  6  7  1  0
  7  8  1  0
  8  9  1  6
  9 10  1  0
 10 11  2  0
 10 12  1  0
 12 13  1  0
 13 14  1  0
 12 15  1  0
 15 16  2  0
 16 17  1  0
 17 18  2  0
 18 19  1  0
 19 20  2  0
  8 21  1  0
  6  2  1  0
 20 15  1  0
 21  3  1  0
M  END
$$$$
