CHEMBL106
     RDKit          2D

 22 24  0  0  0  0  0  0  0  0999 V2000
    2.7990   -1.8481    0.0000 O   0  0  0  0  0  0  0  0  0  0  0  0
    1.5000   -2.5981    0.0000 C   0  0  0  0  0  0  0  0  0  0  0  0
    2.2500   -3.8971    0.0000 C   0  0  0  0  0  0  0  0  0  0  0  0
    3.7500   -3.8971    0.0000 N   0  0  0  0  0  0  0  0  0  0  0  0
    4.6317   -2.6836    0.0000 C   0  0  0  0  0  0  0  0  0  0  0  0
    6.0583   -3.1471    0.0000 N   0  0  0  0  0  0  0  0  0  0  0  0
    6.0583   -4.6471    0.0000 C   0  0  0  0  0  0  0  0  0  0  0  0
    4.6317   -5.1106    0.0000 N   0  0  0  0  0  0  0  0  0  0  0  0
    0.2010   -3.3481    0.0000 C   0  0  0  0  0  0  0  0  0  0  0  0
    0.2010   -4.8481    0.0000 N   0  0  0  0  0  0  0  0  0  0  0  0
    1.4145   -5.7298    0.0000 C   0  0  0  0  0  0  0  0  0  0  0  0
    0.9510   -7.1563    0.0000 N   0  0  0  0  0  0  0  0  0  0  0  0
   -0.5490   -7.1563    0.0000 C   0  0  0  0  0  0  0  0  0  0  0  0
   -1.0126   -5.7298    0.0000 N   0  0  0  0  0  0  0  0  0  0  0  0
    0.7500   -1.2990    0.0000 C   0  0  0  0  0  0  0  0  0  0  0  0
    1.5000    0.0000    0.0000 C   0  0  0  0  0  0  0  0  0  0  0  0
    0.7500    1.2990    0.0000 C   0  0  0  0  0  0  0  0  0  0  0  0
   -0.7500    1.2990    0.0000 C   0  0  0  0  0  0  0  0  0  0  0  0
   -1.5000    2.5981    0.0000 F   0  0  0  0  0  0  0  0  0  0  0  0
   -1.5000    0.0000    0.0000 C   0  0  0  0  0  0  0  0  0  0  0  0
   -0.7500   -1.2990    0.0000 C   0  0  0  0  0  0  0  0  0  0  0  0
   -1.5000   -2.5981    0.0000 F   0  0  0  0  0  0  0  0  0  0  0  0
  1  2  1  0
  2  3  1  0
  3  4  1  0
  4  5  1  0
  5  6  2  0
  6  7  1  0
  7  8  2  0
  2  9  1  0
  9 10  1  0
 10 11  1  0
 11 12  2  0
 12 13  1  0
 13 14  2  0
  2 15  1  0
 15 16  2  0
 16 17  1  0
 17 18  2  0
 18 19  1  0
 18 20  1  0
 20 21  2  0
 21 22  1  0
  8  4  1  0
 14 10  1  0
 21 15  1  0
M  END
$$$$
