CHEMBL274323
     RDKit          2D

  9  8  0  0  0  0  0  0  0  0999 V2000
    1.2990    2.2500    0.0000 N   0  0  0  0  0  0  0  0  0  0  0  0
    1.2990    0.7500    0.0000 C   0  0  0  0  0  0  0  0  0  0  0  0
    0.0000    0.0000    0.0000 C   0  0  0  0  0  0  0  0  0  0  0  0
   -1.2990    0.7500    0.0000 C   0  0  0  0  0  0  0  0  0  0  0  0
   -1.2990    2.2500    0.0000 O   0  0  0  0  0  0  0  0  0  0  0  0
   -2.5981    0.0000    0.0000 O   0  0  0  0  0  0  0  0  0  0  0  0
    2.5981   -0.0000    0.0000 C   0  0  0  0  0  0  0  0  0  0  0  0
    2.5981   -1.5000    0.0000 O   0  0  0  0  0  0  0  0  0  0  0  0
    3.8971    0.7500    0.0000 O   0  0  0  0  0  0  0  0  0  0  0  0
  2  1  1  6
  2  3  1  0
  3  4  1  0
  4  5  2  0
  4  6  1  0
  2  7  1  0
  7  8  2  0
  7  9  1  0
M  END
$$$$
