CHEMBL356323
     RDKit          2D

 20 23  0  0  0  0  0  0  0  0999 V2000
    2.7760    0.0000    0.0000 N   0  0  0  0  0  0  0  0  0  0  0  0
    1.2760    0.0000    0.0000 C   0  0  0  0  0  0  0  0  0  0  0  0
    0.3943    1.2135    0.0000 N   0  0  0  0  0  0  0  0  0  0  0  0
   -1.0323    0.7500    0.0000 C   0  0  0  0  0  0  0  0  0  0  0  0
   -1.0323   -0.7500    0.0000 C   0  0  0  0  0  0  0  0  0  0  0  0
    0.3943   -1.2135    0.0000 N   0  0  0  0  0  0  0  0  0  0  0  0
   -2.3313   -1.5000    0.0000 C   0  0  0  0  0  0  0  0  0  0  0  0
   -2.3313   -3.0000    0.0000 O   0  0  0  0  0  0  0  0  0  0  0  0
   -3.6304   -0.7500    0.0000 N   0  0  0  0  0  0  0  0  0  0  0  0
   -4.9294   -1.5000    0.0000 C   0  0  0  0  0  0  0  0  0  0  0  0
   -6.2284   -0.7500    0.0000 C   0  0  0  0  0  0  0  0  0  0  0  0
   -7.7284   -0.7500    0.0000 C   0  0  0  0  0  0  0  0  0  0  0  0
   -6.9784    0.5490    0.0000 C   0  0  0  0  0  0  0  0  0  0  0  0
   -3.6304    0.7500    0.0000 C   0  0  0  0  0  0  0  0  0  0  0  0
   -4.9294    1.5000    0.0000 O   0  0  0  0  0  0  0  0  0  0  0  0
   -2.3313    1.5000    0.0000 N   0  0  0  0  0  0  0  0  0  0  0  0
   -2.3313    3.0000    0.0000 C   0  0  0  0  0  0  0  0  0  0  0  0
   -1.0323    3.7500    0.0000 C   0  0  0  0  0  0  0  0  0  0  0  0
   -0.2823    5.0490    0.0000 C   0  0  0  0  0  0  0  0  0  0  0  0
    0.4677    3.7500    0.0000 C   0  0  0  0  0  0  0  0  0  0  0  0
  1  2  1  0
  2  3  2  0
  3  4  1  0
  4  5  2  0
  5  6  1  0
  5  7  1  0
  7  8  2  0
  7  9  1  0
  9 10  1  0
 10 11  1  0
 11 12  1  0
 12 13  1  0
  9 14  1  0
 14 15  2  0
 14 16  1  0
 16 17  1  0
 17 18  1  0
 18 19  1  0
 19 20  1  0
  6  2  1  0
 13 11  1  0
 20 18  1  0
 16  4  1  0
M  END
$$$$
