CHEMBL206335
     RDKit          2D

 38 42  0  0  0  0  0  0  0  0999 V2000
   13.9693   -0.2480    0.0000 C   0  0  0  0  0  0  0  0  0  0  0  0
   13.2193    1.0510    0.0000 N   0  0  0  0  0  0  0  0  0  0  0  0
   13.9693    2.3501    0.0000 C   0  0  0  0  0  0  0  0  0  0  0  0
   11.7193    1.0510    0.0000 C   0  0  0  0  0  0  0  0  0  0  0  0
   10.9693    2.3501    0.0000 C   0  0  0  0  0  0  0  0  0  0  0  0
   11.5794    3.7204    0.0000 N   0  0  0  0  0  0  0  0  0  0  0  0
   10.4647    4.7241    0.0000 C   0  0  0  0  0  0  0  0  0  0  0  0
    9.1656    3.9741    0.0000 C   0  0  0  0  0  0  0  0  0  0  0  0
    9.4775    2.5068    0.0000 N   0  0  0  0  0  0  0  0  0  0  0  0
    8.4738    1.3921    0.0000 C   0  0  0  0  0  0  0  0  0  0  0  0
    7.0066    1.7040    0.0000 C   0  0  0  0  0  0  0  0  0  0  0  0
    6.0029    0.5893    0.0000 C   0  0  0  0  0  0  0  0  0  0  0  0
    6.4664   -0.8373    0.0000 C   0  0  0  0  0  0  0  0  0  0  0  0
    5.4627   -1.9520    0.0000 N   0  0  0  0  0  0  0  0  0  0  0  0
    3.9955   -1.6402    0.0000 C   0  0  0  0  0  0  0  0  0  0  0  0
    3.5320   -0.2136    0.0000 O   0  0  0  0  0  0  0  0  0  0  0  0
    2.9918   -2.7549    0.0000 C   0  0  0  0  0  0  0  0  0  0  0  0
    3.3037   -4.2221    0.0000 C   0  0  0  0  0  0  0  0  0  0  0  0
    2.0046   -4.9721    0.0000 C   0  0  0  0  0  0  0  0  0  0  0  0
    1.8478   -6.4639    0.0000 C   0  0  0  0  0  0  0  0  0  0  0  0
    1.6910   -7.9557    0.0000 F   0  0  0  0  0  0  0  0  0  0  0  0
    0.3560   -6.3071    0.0000 F   0  0  0  0  0  0  0  0  0  0  0  0
    3.3396   -6.6207    0.0000 F   0  0  0  0  0  0  0  0  0  0  0  0
    0.8899   -3.9684    0.0000 N   0  0  0  0  0  0  0  0  0  0  0  0
    1.5000   -2.5981    0.0000 N   0  0  0  0  0  0  0  0  0  0  0  0
    0.7500   -1.2990    0.0000 C   0  0  0  0  0  0  0  0  0  0  0  0
    1.5000    0.0000    0.0000 C   0  0  0  0  0  0  0  0  0  0  0  0
    0.7500    1.2990    0.0000 C   0  0  0  0  0  0  0  0  0  0  0  0
   -0.7500    1.2990    0.0000 C   0  0  0  0  0  0  0  0  0  0  0  0
   -1.7537    2.4138    0.0000 O   0  0  0  0  0  0  0  0  0  0  0  0
   -3.1240    1.8037    0.0000 N   0  0  0  0  0  0  0  0  0  0  0  0
   -2.9672    0.3119    0.0000 C   0  0  0  0  0  0  0  0  0  0  0  0
   -4.0819   -0.6918    0.0000 N   0  0  0  0  0  0  0  0  0  0  0  0
   -1.5000    0.0000    0.0000 C   0  0  0  0  0  0  0  0  0  0  0  0
   -0.7500   -1.2990    0.0000 C   0  0  0  0  0  0  0  0  0  0  0  0
    7.9336   -1.1492    0.0000 C   0  0  0  0  0  0  0  0  0  0  0  0
    8.3971   -2.5758    0.0000 F   0  0  0  0  0  0  0  0  0  0  0  0
    8.9373   -0.0345    0.0000 C   0  0  0  0  0  0  0  0  0  0  0  0
  1  2  1  0
  2  3  1  0
  2  4  1  0
  4  5  1  0
  5  6  2  0
  6  7  1  0
  7  8  2  0
  8  9  1  0
  9 10  1  0
 10 11  2  0
 11 12  1  0
 12 13  2  0
 13 14  1  0
 14 15  1  0
 15 16  2  0
 15 17  1  0
 17 18  2  0
 18 19  1  0
 19 20  1  0
 20 21  1  0
 20 22  1  0
 20 23  1  0
 19 24  2  0
 24 25  1  0
 25 26  1  0
 26 27  2  0
 27 28  1  0
 28 29  2  0
 29 30  1  0
 30 31  1  0
 31 32  2  0
 32 33  1  0
 32 34  1  0
 34 35  2  0
 13 36  1  0
 36 37  1  0
 36 38  2  0
  9  5  1  0
 38 10  1  0
 25 17  1  0
 35 26  1  0
 34 29  1  0
M  END
$$$$
