CHEMBL266349
     RDKit          2D

 31 33  0  0  0  0  0  0  0  0999 V2000
    3.7500    1.2990    0.0000 N   0  0  0  0  0  0  0  0  0  0  0  0
    3.0000    0.0000    0.0000 C   0  0  0  0  0  0  0  0  0  0  0  0
    3.7500   -1.2990    0.0000 N   0  0  0  0  0  0  0  0  0  0  0  0
    1.5000    0.0000    0.0000 C   0  0  0  0  0  0  0  0  0  0  0  0
    0.7500   -1.2990    0.0000 C   0  0  0  0  0  0  0  0  0  0  0  0
   -0.7500   -1.2990    0.0000 C   0  0  0  0  0  0  0  0  0  0  0  0
   -1.5000    0.0000    0.0000 C   0  0  0  0  0  0  0  0  0  0  0  0
   -3.0000    0.0000    0.0000 C   0  0  0  0  0  0  0  0  0  0  0  0
   -3.7500    1.2990    0.0000 N   0  0  0  0  0  0  0  0  0  0  0  0
   -5.2500    1.2990    0.0000 C   0  0  0  0  0  0  0  0  0  0  0  0
   -6.0000   -0.0000    0.0000 O   0  0  0  0  0  0  0  0  0  0  0  0
   -6.0000    2.5981    0.0000 C   0  0  0  0  0  0  0  0  0  0  0  0
   -5.6118    4.0470    0.0000 C   0  0  0  0  0  0  0  0  0  0  0  0
   -7.0607    4.4352    0.0000 C   0  0  0  0  0  0  0  0  0  0  0  0
   -7.4489    2.9863    0.0000 N   0  0  0  0  0  0  0  0  0  0  0  0
   -8.7479    2.2363    0.0000 C   0  0  0  0  0  0  0  0  0  0  0  0
   -8.7479    0.7363    0.0000 O   0  0  0  0  0  0  0  0  0  0  0  0
  -10.0470    2.9863    0.0000 C   0  0  0  0  0  0  0  0  0  0  0  0
  -10.0470    4.4863    0.0000 N   0  0  0  0  0  0  0  0  0  0  0  0
  -11.3460    5.2363    0.0000 C   0  0  0  0  0  0  0  0  0  0  0  0
  -11.3460    6.7363    0.0000 C   0  0  0  0  0  0  0  0  0  0  0  0
  -10.0470    7.4863    0.0000 O   0  0  0  0  0  0  0  0  0  0  0  0
  -12.6450    7.4863    0.0000 O   0  0  0  0  0  0  0  0  0  0  0  0
  -11.3460    2.2363    0.0000 C   0  0  0  0  0  0  0  0  0  0  0  0
  -12.6450    2.9863    0.0000 C   0  0  0  0  0  0  0  0  0  0  0  0
  -13.9441    2.2363    0.0000 C   0  0  0  0  0  0  0  0  0  0  0  0
  -13.9441    0.7363    0.0000 C   0  0  0  0  0  0  0  0  0  0  0  0
  -12.6450   -0.0137    0.0000 C   0  0  0  0  0  0  0  0  0  0  0  0
  -11.3460    0.7363    0.0000 C   0  0  0  0  0  0  0  0  0  0  0  0
   -0.7500    1.2990    0.0000 C   0  0  0  0  0  0  0  0  0  0  0  0
    0.7500    1.2990    0.0000 C   0  0  0  0  0  0  0  0  0  0  0  0
  1  2  2  0
  2  3  1  0
  2  4  1  0
  4  5  2  0
  5  6  1  0
  6  7  2  0
  7  8  1  0
  8  9  1  0
  9 10  1  0
 10 11  2  0
 12 10  1  1
 12 13  1  0
 13 14  1  0
 14 15  1  0
 15 16  1  0
 16 17  2  0
 16 18  1  0
 18 19  1  1
 19 20  1  0
 20 21  1  0
 21 22  2  0
 21 23  1  0
 18 24  1  0
 24 25  1  0
 25 26  1  0
 26 27  1  0
 27 28  1  0
 28 29  1  0
  7 30  1  0
 30 31  2  0
 31  4  1  0
 15 12  1  0
 29 24  1  0
M  END
$$$$
