CHEMBL4863829
     RDKit          2D

 26 28  0  0  0  0  0  0  0  0999 V2000
  -10.9818   -4.8801    0.0000 C   0  0  0  0  0  0  0  0  0  0  0  0
   -9.6114   -4.2700    0.0000 C   0  0  0  0  0  0  0  0  0  0  0  0
   -9.4547   -2.7782    0.0000 C   0  0  0  0  0  0  0  0  0  0  0  0
   -8.3979   -5.1517    0.0000 C   0  0  0  0  0  0  0  0  0  0  0  0
   -8.5547   -6.6435    0.0000 O   0  0  0  0  0  0  0  0  0  0  0  0
   -7.0276   -4.5416    0.0000 O   0  0  0  0  0  0  0  0  0  0  0  0
   -5.8141   -5.4233    0.0000 C   0  0  0  0  0  0  0  0  0  0  0  0
   -4.4438   -4.8132    0.0000 C   0  0  0  0  0  0  0  0  0  0  0  0
   -4.1319   -3.3459    0.0000 O   0  0  0  0  0  0  0  0  0  0  0  0
   -2.6401   -3.1891    0.0000 C   0  0  0  0  0  0  0  0  0  0  0  0
   -2.9520   -1.7219    0.0000 C   0  0  0  0  0  0  0  0  0  0  0  0
   -3.2638   -0.2547    0.0000 N   0  0  0  0  0  0  0  0  0  0  0  0
   -1.2135   -2.7256    0.0000 C   0  0  0  0  0  0  0  0  0  0  0  0
   -0.0000   -3.6073    0.0000 C   0  0  0  0  0  0  0  0  0  0  0  0
    1.2135   -2.7256    0.0000 C   0  0  0  0  0  0  0  0  0  0  0  0
    0.7500   -1.2990    0.0000 C   0  0  0  0  0  0  0  0  0  0  0  0
    1.5000    0.0000    0.0000 C   0  0  0  0  0  0  0  0  0  0  0  0
    3.0000    0.0000    0.0000 N   0  0  0  0  0  0  0  0  0  0  0  0
    0.7500    1.2990    0.0000 N   0  0  0  0  0  0  0  0  0  0  0  0
   -0.7500    1.2990    0.0000 C   0  0  0  0  0  0  0  0  0  0  0  0
   -1.5000    0.0000    0.0000 N   0  0  0  0  0  0  0  0  0  0  0  0
   -0.7500   -1.2990    0.0000 N   0  0  0  0  0  0  0  0  0  0  0  0
   -2.0300   -4.5595    0.0000 C   0  0  0  0  0  0  0  0  0  0  0  0
   -0.5628   -4.8713    0.0000 O   0  0  0  0  0  0  0  0  0  0  0  0
   -3.1447   -5.5632    0.0000 C   0  0  0  0  0  0  0  0  0  0  0  0
   -2.9879   -7.0549    0.0000 O   0  0  0  0  0  0  0  0  0  0  0  0
  1  2  1  0
  2  3  1  0
  2  4  1  0
  4  5  2  0
  4  6  1  0
  6  7  1  0
  8  7  1  1
  8  9  1  0
  9 10  1  0
 10 11  1  6
 11 12  3  0
 10 13  1  0
 13 14  2  0
 14 15  1  0
 15 16  2  0
 16 17  1  0
 17 18  1  0
 17 19  2  0
 19 20  1  0
 20 21  2  0
 21 22  1  0
 10 23  1  0
 23 24  1  6
 23 25  1  0
 25 26  1  6
 25  8  1  0
 22 13  1  0
 22 16  1  0
M  END
$$$$
