CHEMBL1241348
     RDKit          2D

 57 62  0  0  0  0  0  0  0  0999 V2000
    5.7820  -10.2865    0.0000 C   0  0  0  0  0  0  0  0  0  0  0  0
    5.6774   -8.7902    0.0000 C   0  0  0  0  0  0  0  0  0  0  0  0
    6.9210   -7.9514    0.0000 C   0  0  0  0  0  0  0  0  0  0  0  0
    8.4173   -7.8468    0.0000 C   0  0  0  0  0  0  0  0  0  0  0  0
    7.5785   -6.6032    0.0000 C   0  0  0  0  0  0  0  0  0  0  0  0
    6.3650   -5.7215    0.0000 N   0  0  0  0  0  0  0  0  0  0  0  0
    6.5218   -4.2298    0.0000 C   0  0  0  0  0  0  0  0  0  0  0  0
    7.5675   -3.9101    0.0000 O   0  0  0  0  0  0  0  0  0  0  0  0
    5.3083   -3.3481    0.0000 C   0  0  0  0  0  0  0  0  0  0  0  0
    3.8817   -3.8116    0.0000 C   0  0  0  0  0  0  0  0  0  0  0  0
    3.0000   -2.5981    0.0000 C   0  0  0  0  0  0  0  0  0  0  0  0
    1.5000   -2.5981    0.0000 O   0  0  0  0  0  0  0  0  0  0  0  0
    0.7500   -1.2990    0.0000 C   0  0  0  0  0  0  0  0  0  0  0  0
    1.5000    0.0000    0.0000 C   0  0  0  0  0  0  0  0  0  0  0  0
    0.7500    1.2990    0.0000 C   0  0  0  0  0  0  0  0  0  0  0  0
    1.5000    2.5981    0.0000 C   0  0  0  0  0  0  0  0  0  0  0  0
    0.8899    3.9684    0.0000 C   0  0  0  0  0  0  0  0  0  0  0  0
    2.0046    4.9721    0.0000 S   0  0  0  0  0  0  0  0  0  0  0  0
    3.3037    4.2221    0.0000 C   0  0  0  0  0  0  0  0  0  0  0  0
    4.6740    4.8322    0.0000 N   0  0  0  0  0  0  0  0  0  0  0  0
    5.8875    3.9505    0.0000 C   0  0  0  0  0  0  0  0  0  0  0  0
    5.7307    2.4587    0.0000 O   0  0  0  0  0  0  0  0  0  0  0  0
    7.2578    4.5606    0.0000 C   0  0  0  0  0  0  0  0  0  0  0  0
    8.4713    3.6789    0.0000 C   0  0  0  0  0  0  0  0  0  0  0  0
    7.4146    6.0524    0.0000 C   0  0  0  0  0  0  0  0  0  0  0  0
    2.9918    2.7549    0.0000 N   0  0  0  0  0  0  0  0  0  0  0  0
   -0.7500    1.2990    0.0000 N   0  0  0  0  0  0  0  0  0  0  0  0
   -1.5000    0.0000    0.0000 C   0  0  0  0  0  0  0  0  0  0  0  0
   -3.0000    0.0000    0.0000 C   0  0  0  0  0  0  0  0  0  0  0  0
   -3.7500    1.2990    0.0000 Br  0  0  0  0  0  0  0  0  0  0  0  0
   -3.7500   -1.2990    0.0000 C   0  0  0  0  0  0  0  0  0  0  0  0
   -5.2500   -1.2990    0.0000 O   0  0  0  0  0  0  0  0  0  0  0  0
   -6.0000    0.0000    0.0000 C   0  0  0  0  0  0  0  0  0  0  0  0
   -3.0000   -2.5981    0.0000 C   0  0  0  0  0  0  0  0  0  0  0  0
   -1.5000   -2.5981    0.0000 C   0  0  0  0  0  0  0  0  0  0  0  0
   -0.7500   -1.2990    0.0000 C   0  0  0  0  0  0  0  0  0  0  0  0
    3.8817   -1.3846    0.0000 C   0  0  0  0  0  0  0  0  0  0  0  0
    5.3083   -1.8481    0.0000 N   0  0  0  0  0  0  0  0  0  0  0  0
    6.5218   -0.9664    0.0000 C   0  0  0  0  0  0  0  0  0  0  0  0
    6.3650    0.5254    0.0000 O   0  0  0  0  0  0  0  0  0  0  0  0
    7.8921   -1.5765    0.0000 C   0  0  0  0  0  0  0  0  0  0  0  0
    8.0489   -3.0683    0.0000 N   0  0  0  0  0  0  0  0  0  0  0  0
    9.4192   -3.6784    0.0000 C   0  0  0  0  0  0  0  0  0  0  0  0
    9.5760   -5.1702    0.0000 O   0  0  0  0  0  0  0  0  0  0  0  0
   10.6327   -2.7967    0.0000 O   0  0  0  0  0  0  0  0  0  0  0  0
   12.0031   -3.4068    0.0000 C   0  0  0  0  0  0  0  0  0  0  0  0
   13.3021   -2.6568    0.0000 C   0  0  0  0  0  0  0  0  0  0  0  0
   14.4168   -3.6605    0.0000 C   0  0  0  0  0  0  0  0  0  0  0  0
   13.8067   -5.0308    0.0000 C   0  0  0  0  0  0  0  0  0  0  0  0
   12.3149   -4.8740    0.0000 C   0  0  0  0  0  0  0  0  0  0  0  0
    9.1056   -0.6948    0.0000 C   0  0  0  0  0  0  0  0  0  0  0  0
    9.9873   -1.9084    0.0000 C   0  0  0  0  0  0  0  0  0  0  0  0
    8.2240    0.5187    0.0000 C   0  0  0  0  0  0  0  0  0  0  0  0
   10.3192    0.1869    0.0000 C   0  0  0  0  0  0  0  0  0  0  0  0
    8.6575   -5.5612    0.0000 C   0  0  0  0  0  0  0  0  0  0  0  0
    8.4748   -4.0724    0.0000 O   0  0  0  0  0  0  0  0  0  0  0  0
   10.0994   -5.9747    0.0000 O   0  0  0  0  0  0  0  0  0  0  0  0
  1  2  2  0
  3  2  1  1
  3  4  1  0
  4  5  1  0
  5  6  1  6
  6  7  1  0
  7  8  2  0
  9  7  1  6
  9 10  1  0
 10 11  1  0
 11 12  1  1
 12 13  1  0
 13 14  2  0
 14 15  1  0
 15 16  1  0
 16 17  2  0
 17 18  1  0
 18 19  1  0
 19 20  1  0
 20 21  1  0
 21 22  2  0
 21 23  1  0
 23 24  1  0
 23 25  1  0
 19 26  2  0
 15 27  2  0
 27 28  1  0
 28 29  2  0
 29 30  1  0
 29 31  1  0
 31 32  1  0
 32 33  1  0
 31 34  2  0
 34 35  1  0
 35 36  2  0
 11 37  1  0
 37 38  1  0
 38 39  1  0
 39 40  2  0
 39 41  1  0
 41 42  1  6
 42 43  1  0
 43 44  2  0
 43 45  1  0
 45 46  1  0
 46 47  1  0
 47 48  1  0
 48 49  1  0
 49 50  1  0
 41 51  1  0
 51 52  1  0
 51 53  1  0
 51 54  1  0
  5 55  1  0
 55 56  2  0
 55 57  1  0
  5  3  1  0
 38  9  1  0
 50 46  1  0
 36 13  1  0
 26 16  1  0
 36 28  1  0
M  END
$$$$
