CHEMBL267345
     RDKit          2D

 65 67  0  0  0  0  0  0  0  0999 V2000
   18.7204    3.2610    0.0000 C   0  0  0  0  0  0  0  0  0  0  0  0
   17.3109    2.7479    0.0000 C   0  0  0  0  0  0  0  0  0  0  0  0
   17.6991    1.2990    0.0000 C   0  0  0  0  0  0  0  0  0  0  0  0
   19.1763    1.5595    0.0000 O   0  0  0  0  0  0  0  0  0  0  0  0
   17.8298   -0.1953    0.0000 C   0  0  0  0  0  0  0  0  0  0  0  0
   19.3298   -0.1953    0.0000 C   0  0  0  0  0  0  0  0  0  0  0  0
   17.6991   -1.6895    0.0000 C   0  0  0  0  0  0  0  0  0  0  0  0
   17.0652   -3.0490    0.0000 C   0  0  0  0  0  0  0  0  0  0  0  0
   16.6769   -4.4979    0.0000 C   0  0  0  0  0  0  0  0  0  0  0  0
   15.6163   -5.5586    0.0000 C   0  0  0  0  0  0  0  0  0  0  0  0
   14.7559   -6.7873    0.0000 C   0  0  0  0  0  0  0  0  0  0  0  0
   13.3965   -7.4212    0.0000 C   0  0  0  0  0  0  0  0  0  0  0  0
   12.1677   -8.2816    0.0000 C   0  0  0  0  0  0  0  0  0  0  0  0
   10.6734   -8.4123    0.0000 C   0  0  0  0  0  0  0  0  0  0  0  0
    9.2246   -8.8005    0.0000 C   0  0  0  0  0  0  0  0  0  0  0  0
    7.7757   -8.4123    0.0000 C   0  0  0  0  0  0  0  0  0  0  0  0
    6.2814   -8.2816    0.0000 C   0  0  0  0  0  0  0  0  0  0  0  0
    5.0526   -7.4212    0.0000 C   0  0  0  0  0  0  0  0  0  0  0  0
    3.6932   -6.7873    0.0000 C   0  0  0  0  0  0  0  0  0  0  0  0
    2.8328   -5.5586    0.0000 C   0  0  0  0  0  0  0  0  0  0  0  0
    1.7722   -4.4979    0.0000 C   0  0  0  0  0  0  0  0  0  0  0  0
    0.6231   -5.4621    0.0000 O   0  0  0  0  0  0  0  0  0  0  0  0
   -0.7864   -4.9490    0.0000 C   0  0  0  0  0  0  0  0  0  0  0  0
   -1.0469   -3.4718    0.0000 O   0  0  0  0  0  0  0  0  0  0  0  0
   -2.4565   -2.9588    0.0000 C   0  0  0  0  0  0  0  0  0  0  0  0
   -2.7169   -1.4816    0.0000 C   0  0  0  0  0  0  0  0  0  0  0  0
   -3.6055   -3.9230    0.0000 C   0  0  0  0  0  0  0  0  0  0  0  0
   -5.0151   -3.4100    0.0000 O   0  0  0  0  0  0  0  0  0  0  0  0
   -3.3451   -5.4002    0.0000 C   0  0  0  0  0  0  0  0  0  0  0  0
   -4.4941   -6.3644    0.0000 N   0  0  0  0  0  0  0  0  0  0  0  0
   -1.9355   -5.9132    0.0000 C   0  0  0  0  0  0  0  0  0  0  0  0
   -1.6750   -7.3904    0.0000 O   0  0  0  0  0  0  0  0  0  0  0  0
    1.1382   -3.1384    0.0000 C   0  0  0  0  0  0  0  0  0  0  0  0
    0.7500   -1.2990    0.0000 C   0  0  0  0  0  0  0  0  0  0  0  0
    1.5000    0.0000    0.0000 O   0  0  0  0  0  0  0  0  0  0  0  0
    0.7500    1.2990    0.0000 C   0  0  0  0  0  0  0  0  0  0  0  0
    1.3653    1.9361    0.0000 O   0  0  0  0  0  0  0  0  0  0  0  0
    1.1382    2.7479    0.0000 C   0  0  0  0  0  0  0  0  0  0  0  0
    1.7722    4.1074    0.0000 C   0  0  0  0  0  0  0  0  0  0  0  0
    0.4731    4.8574    0.0000 O   0  0  0  0  0  0  0  0  0  0  0  0
    2.6325    5.3361    0.0000 C   0  0  0  0  0  0  0  0  0  0  0  0
    3.6932    6.3968    0.0000 C   0  0  0  0  0  0  0  0  0  0  0  0
    2.7290    7.5458    0.0000 O   0  0  0  0  0  0  0  0  0  0  0  0
    4.9219    7.2571    0.0000 C   0  0  0  0  0  0  0  0  0  0  0  0
    4.1719    8.5562    0.0000 O   0  0  0  0  0  0  0  0  0  0  0  0
    6.2814    7.8911    0.0000 C   0  0  0  0  0  0  0  0  0  0  0  0
    7.7303    8.2793    0.0000 C   0  0  0  0  0  0  0  0  0  0  0  0
    9.2246    8.4100    0.0000 C   0  0  0  0  0  0  0  0  0  0  0  0
    9.2246    9.9100    0.0000 O   0  0  0  0  0  0  0  0  0  0  0  0
   10.7188    8.2793    0.0000 C   0  0  0  0  0  0  0  0  0  0  0  0
   12.1677    7.8911    0.0000 C   0  0  0  0  0  0  0  0  0  0  0  0
   12.6808    9.3006    0.0000 O   0  0  0  0  0  0  0  0  0  0  0  0
   13.5272    7.2571    0.0000 C   0  0  0  0  0  0  0  0  0  0  0  0
   14.7559    6.3968    0.0000 C   0  0  0  0  0  0  0  0  0  0  0  0
   15.7201    7.5458    0.0000 O   0  0  0  0  0  0  0  0  0  0  0  0
   15.8166    5.3361    0.0000 O   0  0  0  0  0  0  0  0  0  0  0  0
   16.6769    4.1074    0.0000 C   0  0  0  0  0  0  0  0  0  0  0  0
   17.9760    4.8574    0.0000 C   0  0  0  0  0  0  0  0  0  0  0  0
   -0.7500    1.2990    0.0000 C   0  0  0  0  0  0  0  0  0  0  0  0
   -1.5000    0.0000    0.0000 C   0  0  0  0  0  0  0  0  0  0  0  0
   -3.0000    0.0000    0.0000 O   0  0  0  0  0  0  0  0  0  0  0  0
   -0.7500   -1.2990    0.0000 C   0  0  0  0  0  0  0  0  0  0  0  0
   -1.5000   -2.5981    0.0000 C   0  0  0  0  0  0  0  0  0  0  0  0
   -0.9462   -3.1715    0.0000 O   0  0  0  0  0  0  0  0  0  0  0  0
   -2.9554   -2.2351    0.0000 O   0  0  0  0  0  0  0  0  0  0  0  0
  2  1  1  6
  2  3  1  0
  3  4  1  6
  3  5  1  0
  5  6  1  1
  5  7  1  0
  7  8  2  0
  8  9  1  0
  9 10  2  0
 10 11  1  0
 11 12  2  0
 12 13  1  0
 13 14  2  0
 14 15  1  0
 15 16  2  0
 16 17  1  0
 17 18  2  0
 18 19  1  0
 19 20  2  0
 20 21  1  0
 21 22  1  6
 23 22  1  1
 23 24  1  0
 24 25  1  0
 25 26  1  1
 25 27  1  0
 27 28  1  6
 27 29  1  0
 29 30  1  1
 29 31  1  0
 31 32  1  1
 21 33  1  0
 34 33  1  1
 34 35  1  0
 35 36  1  0
 36 37  1  6
 36 38  1  0
 38 39  1  0
 39 40  1  1
 39 41  1  0
 41 42  1  0
 42 43  1  1
 42 44  1  0
 44 45  1  6
 44 46  1  0
 46 47  1  0
 47 48  1  0
 48 49  1  1
 48 50  1  0
 50 51  1  0
 51 52  1  1
 51 53  1  0
 53 54  1  0
 54 55  2  0
 54 56  1  0
 56 57  1  0
 57 58  1  1
 36 59  1  0
 59 60  1  0
 60 61  1  1
 60 62  1  0
 62 63  1  6
 63 64  2  0
 63 65  1  0
 57  2  1  0
 31 23  1  0
 62 34  1  0
M  END
$$$$
