CHEMBL3215298
     RDKit          2D

123135  0  0  0  0  0  0  0  0999 V2000
    5.2500    1.2990    0.0000 C   0  0  0  0  0  0  0  0  0  0  0  0
    3.7500    1.2990    0.0000 C   0  0  0  0  0  0  0  0  0  0  0  0
    3.0000    0.0000    0.0000 C   0  0  0  0  0  0  0  0  0  0  0  0
    3.7500   -1.2990    0.0000 C   0  0  0  0  0  0  0  0  0  0  0  0
    1.5000    0.0000    0.0000 C   0  0  0  0  0  0  0  0  0  0  0  0
    0.7500   -1.2990    0.0000 O   0  0  0  0  0  0  0  0  0  0  0  0
   -0.7500   -1.2990    0.0000 C   0  0  0  0  0  0  0  0  0  0  0  0
   -1.5000    0.0000    0.0000 C   0  0  0  0  0  0  0  0  0  0  0  0
   -0.7500    1.2990    0.0000 C   0  0  0  0  0  0  0  0  0  0  0  0
    0.7500    1.2990    0.0000 C   0  0  0  0  0  0  0  0  0  0  0  0
    1.5000    2.5981    0.0000 C   0  0  0  0  0  0  0  0  0  0  0  0
   -2.2500   -1.2990    0.0000 C   0  0  0  0  0  0  0  0  0  0  0  0
   -3.0000   -2.5981    0.0000 C   0  0  0  0  0  0  0  0  0  0  0  0
   -2.2500   -3.8971    0.0000 C   0  0  0  0  0  0  0  0  0  0  0  0
   -0.7500   -3.8971    0.0000 C   0  0  0  0  0  0  0  0  0  0  0  0
    0.2116   -5.4146    0.0000 C   0  0  0  0  0  0  0  0  0  0  0  0
   -0.2706   -6.8350    0.0000 C   0  0  0  0  0  0  0  0  0  0  0  0
   -0.1725   -8.3317    0.0000 C   0  0  0  0  0  0  0  0  0  0  0  0
    1.1266   -9.0817    0.0000 C   0  0  0  0  0  0  0  0  0  0  0  0
   -1.1615   -9.4595    0.0000 C   0  0  0  0  0  0  0  0  0  0  0  0
   -0.2483  -10.6495    0.0000 O   0  0  0  0  0  0  0  0  0  0  0  0
   -0.8224  -12.0354    0.0000 C   0  0  0  0  0  0  0  0  0  0  0  0
   -2.3095  -12.2311    0.0000 C   0  0  0  0  0  0  0  0  0  0  0  0
   -2.8836  -13.6170    0.0000 C   0  0  0  0  0  0  0  0  0  0  0  0
   -4.3707  -13.8128    0.0000 O   0  0  0  0  0  0  0  0  0  0  0  0
   -4.9448  -15.1986    0.0000 C   0  0  0  0  0  0  0  0  0  0  0  0
   -1.9704  -14.8070    0.0000 C   0  0  0  0  0  0  0  0  0  0  0  0
   -2.5444  -16.1928    0.0000 O   0  0  0  0  0  0  0  0  0  0  0  0
   -1.6313  -17.3828    0.0000 C   0  0  0  0  0  0  0  0  0  0  0  0
   -2.2053  -18.7687    0.0000 C   0  0  0  0  0  0  0  0  0  0  0  0
   -1.2922  -19.9587    0.0000 C   0  0  0  0  0  0  0  0  0  0  0  0
   -1.8662  -21.3445    0.0000 O   0  0  0  0  0  0  0  0  0  0  0  0
   -3.3534  -21.5403    0.0000 C   0  0  0  0  0  0  0  0  0  0  0  0
    0.1950  -19.7629    0.0000 C   0  0  0  0  0  0  0  0  0  0  0  0
    1.1081  -20.9529    0.0000 O   0  0  0  0  0  0  0  0  0  0  0  0
    0.7690  -18.3771    0.0000 C   0  0  0  0  0  0  0  0  0  0  0  0
    2.2562  -18.1813    0.0000 C   0  0  0  0  0  0  0  0  0  0  0  0
   -0.1441  -17.1871    0.0000 O   0  0  0  0  0  0  0  0  0  0  0  0
   -0.4833  -14.6112    0.0000 C   0  0  0  0  0  0  0  0  0  0  0  0
    0.4299  -15.8012    0.0000 C   0  0  0  0  0  0  0  0  0  0  0  0
    0.0908  -13.2254    0.0000 O   0  0  0  0  0  0  0  0  0  0  0  0
   -2.5068  -10.1229    0.0000 C   0  0  0  0  0  0  0  0  0  0  0  0
   -2.7026  -11.6101    0.0000 C   0  0  0  0  0  0  0  0  0  0  0  0
   -3.9272   -9.6408    0.0000 C   0  0  0  0  0  0  0  0  0  0  0  0
   -5.4240   -9.7389    0.0000 C   0  0  0  0  0  0  0  0  0  0  0  0
   -6.0874   -8.3936    0.0000 C   0  0  0  0  0  0  0  0  0  0  0  0
   -7.2152   -7.4046    0.0000 C   0  0  0  0  0  0  0  0  0  0  0  0
   -8.6084   -7.9604    0.0000 C   0  0  0  0  0  0  0  0  0  0  0  0
   -9.5675   -6.8071    0.0000 O   0  0  0  0  0  0  0  0  0  0  0  0
   -8.7671   -5.5385    0.0000 C   0  0  0  0  0  0  0  0  0  0  0  0
   -9.8301   -4.4088    0.0000 C   0  0  0  0  0  0  0  0  0  0  0  0
  -11.3296   -4.3696    0.0000 O   0  0  0  0  0  0  0  0  0  0  0  0
   -9.0463   -3.1299    0.0000 C   0  0  0  0  0  0  0  0  0  0  0  0
   -9.7621   -1.8117    0.0000 C   0  0  0  0  0  0  0  0  0  0  0  0
   -7.5469   -3.1691    0.0000 C   0  0  0  0  0  0  0  0  0  0  0  0
   -6.8311   -4.4874    0.0000 C   0  0  0  0  0  0  0  0  0  0  0  0
   -5.8421   -3.3596    0.0000 C   0  0  0  0  0  0  0  0  0  0  0  0
   -6.7552   -2.1696    0.0000 O   0  0  0  0  0  0  0  0  0  0  0  0
   -4.4968   -2.6962    0.0000 O   0  0  0  0  0  0  0  0  0  0  0  0
   -7.3133   -5.9078    0.0000 C   0  0  0  0  0  0  0  0  0  0  0  0
   -8.0290   -4.5895    0.0000 O   0  0  0  0  0  0  0  0  0  0  0  0
   -0.0000   -2.5981    0.0000 O   0  0  0  0  0  0  0  0  0  0  0  0
    8.9296   -2.6296    0.0000 C   0  0  0  0  0  0  0  0  0  0  0  0
   10.2287   -3.3796    0.0000 O   0  0  0  0  0  0  0  0  0  0  0  0
   10.2287   -4.8796    0.0000 C   0  0  0  0  0  0  0  0  0  0  0  0
   11.5277   -5.6296    0.0000 C   0  0  0  0  0  0  0  0  0  0  0  0
   11.5277   -7.1296    0.0000 C   0  0  0  0  0  0  0  0  0  0  0  0
   12.8268   -7.8796    0.0000 O   0  0  0  0  0  0  0  0  0  0  0  0
   14.1258   -7.1296    0.0000 C   0  0  0  0  0  0  0  0  0  0  0  0
   15.4248   -7.8796    0.0000 C   0  0  0  0  0  0  0  0  0  0  0  0
   15.4248   -9.3796    0.0000 C   0  0  0  0  0  0  0  0  0  0  0  0
   16.7239   -7.1296    0.0000 O   0  0  0  0  0  0  0  0  0  0  0  0
   16.7239   -5.6296    0.0000 C   0  0  0  0  0  0  0  0  0  0  0  0
   18.0229   -4.8796    0.0000 O   0  0  0  0  0  0  0  0  0  0  0  0
   18.0229   -3.3796    0.0000 C   0  0  0  0  0  0  0  0  0  0  0  0
   16.5517   -3.0870    0.0000 C   0  0  0  0  0  0  0  0  0  0  0  0
   16.5517   -1.5870    0.0000 C   0  0  0  0  0  0  0  0  0  0  0  0
   15.0806   -3.3796    0.0000 C   0  0  0  0  0  0  0  0  0  0  0  0
   13.8334   -2.5462    0.0000 C   0  0  0  0  0  0  0  0  0  0  0  0
   13.0000   -1.2990    0.0000 C   0  0  0  0  0  0  0  0  0  0  0  0
   13.7500    0.0000    0.0000 C   0  0  0  0  0  0  0  0  0  0  0  0
   13.0000    1.2990    0.0000 C   0  0  0  0  0  0  0  0  0  0  0  0
   11.5000    1.2990    0.0000 C   0  0  0  0  0  0  0  0  0  0  0  0
   10.7500    0.0000    0.0000 C   0  0  0  0  0  0  0  0  0  0  0  0
   10.0000    1.2990    0.0000 C   0  0  0  0  0  0  0  0  0  0  0  0
    8.5000    1.2990    0.0000 C   0  0  0  0  0  0  0  0  0  0  0  0
    7.7500   -0.0000    0.0000 C   0  0  0  0  0  0  0  0  0  0  0  0
    6.2500   -0.0000    0.0000 C   0  0  0  0  0  0  0  0  0  0  0  0
    8.5000   -1.2990    0.0000 C   0  0  0  0  0  0  0  0  0  0  0  0
    7.7500   -2.5981    0.0000 C   0  0  0  0  0  0  0  0  0  0  0  0
    8.5000   -3.8971    0.0000 C   0  0  0  0  0  0  0  0  0  0  0  0
    6.2500   -2.5981    0.0000 C   0  0  0  0  0  0  0  0  0  0  0  0
   10.0000   -1.2990    0.0000 O   0  0  0  0  0  0  0  0  0  0  0  0
   11.5000   -1.2990    0.0000 O   0  0  0  0  0  0  0  0  0  0  0  0
   13.8334    2.8905    0.0000 O   0  0  0  0  0  0  0  0  0  0  0  0
   15.0806    3.7239    0.0000 C   0  0  0  0  0  0  0  0  0  0  0  0
   14.5065    5.1097    0.0000 O   0  0  0  0  0  0  0  0  0  0  0  0
   16.5517    4.0165    0.0000 C   0  0  0  0  0  0  0  0  0  0  0  0
   16.0696    5.4369    0.0000 C   0  0  0  0  0  0  0  0  0  0  0  0
   17.0586    6.5647    0.0000 C   0  0  0  0  0  0  0  0  0  0  0  0
   16.5764    7.9851    0.0000 C   0  0  0  0  0  0  0  0  0  0  0  0
   18.5298    6.2720    0.0000 C   0  0  0  0  0  0  0  0  0  0  0  0
   19.5188    7.3998    0.0000 O   0  0  0  0  0  0  0  0  0  0  0  0
   19.0119    4.8516    0.0000 C   0  0  0  0  0  0  0  0  0  0  0  0
   20.4051    4.2958    0.0000 O   0  0  0  0  0  0  0  0  0  0  0  0
   20.3070    2.7990    0.0000 C   0  0  0  0  0  0  0  0  0  0  0  0
   18.8563    2.4767    0.0000 C   0  0  0  0  0  0  0  0  0  0  0  0
   20.1035    1.6433    0.0000 C   0  0  0  0  0  0  0  0  0  0  0  0
   19.8108    0.1721    0.0000 C   0  0  0  0  0  0  0  0  0  0  0  0
   20.1035   -1.2990    0.0000 C   0  0  0  0  0  0  0  0  0  0  0  0
   19.2701   -2.5462    0.0000 C   0  0  0  0  0  0  0  0  0  0  0  0
   20.3308   -3.6069    0.0000 C   0  0  0  0  0  0  0  0  0  0  0  0
   18.0229    3.7239    0.0000 C   0  0  0  0  0  0  0  0  0  0  0  0
   19.4718    3.3356    0.0000 O   0  0  0  0  0  0  0  0  0  0  0  0
   15.4248   -4.8796    0.0000 C   0  0  0  0  0  0  0  0  0  0  0  0
   14.1258   -5.6296    0.0000 C   0  0  0  0  0  0  0  0  0  0  0  0
   12.8268   -4.8796    0.0000 O   0  0  0  0  0  0  0  0  0  0  0  0
   12.8268   -3.3796    0.0000 C   0  0  0  0  0  0  0  0  0  0  0  0
   10.2287   -7.8796    0.0000 O   0  0  0  0  0  0  0  0  0  0  0  0
    8.9296   -7.1296    0.0000 C   0  0  0  0  0  0  0  0  0  0  0  0
    7.6306   -7.8796    0.0000 C   0  0  0  0  0  0  0  0  0  0  0  0
    8.9296   -5.6296    0.0000 C   0  0  0  0  0  0  0  0  0  0  0  0
    7.6306   -4.8796    0.0000 O   0  0  0  0  0  0  0  0  0  0  0  0
  1  2  1  0
  2  3  1  0
  3  4  1  6
  3  5  1  0
  5  6  1  1
  6  7  1  0
  7  8  1  0
  8  9  2  0
  9 10  1  0
 10 11  1  6
  7 12  1  1
 13 12  1  6
 13 14  1  0
 14 15  1  0
 15 16  1  6
 16 17  1  0
 17 18  2  0
 18 19  1  0
 18 20  1  0
 20 21  1  1
 22 21  1  6
 22 23  1  0
 23 24  1  0
 24 25  1  1
 25 26  1  0
 24 27  1  0
 27 28  1  6
 29 28  1  6
 29 30  1  0
 30 31  1  0
 31 32  1  1
 32 33  1  0
 31 34  1  0
 34 35  1  6
 34 36  1  0
 36 37  1  1
 36 38  1  0
 27 39  1  0
 39 40  1  1
 39 41  1  0
 20 42  1  0
 42 43  1  1
 42 44  1  0
 44 45  2  0
 45 46  1  0
 46 47  2  0
 47 48  1  0
 48 49  1  0
 50 49  1  6
 50 51  1  0
 51 52  1  6
 51 53  1  0
 53 54  1  0
 53 55  2  0
 56 55  1  1
 56 57  1  0
 57 58  2  0
 57 59  1  0
 56 60  1  0
 60 61  1  1
 15 62  1  0
 63 64  1  0
 65 64  1  1
 65 66  1  0
 66 67  1  0
 67 68  1  6
 69 68  1  6
 69 70  1  0
 70 71  1  1
 70 72  1  0
 72 73  1  0
 73 74  1  6
 75 74  1  6
 75 76  1  0
 76 77  1  0
 76 78  2  0
 78 79  1  0
 80 79  1  1
 80 81  1  0
 81 82  1  0
 82 83  1  1
 84 83  1  6
 84 85  1  0
 85 86  2  0
 86 87  1  0
 87 88  1  1
 87 89  1  0
 89 90  1  6
 90 91  1  0
 90 92  1  0
 89 93  1  0
 84 94  1  0
 82 95  1  0
 95 96  1  0
 96 97  2  0
 96 98  1  0
 98 99  1  6
 99100  2  0
100101  1  0
100102  1  0
102103  1  1
102104  1  0
104105  1  1
105106  1  0
106107  1  0
107108  2  0
108109  1  0
109110  2  0
110111  1  0
111112  1  6
107113  1  0
113114  1  6
 73115  1  0
115116  1  0
116117  1  1
117118  1  0
 67119  1  0
119120  1  0
120121  1  1
120122  1  0
122123  1  6
 10  5  1  0
 59 13  1  0
122 65  1  0
 62  7  1  0
116 69  1  0
 41 22  1  0
 60 47  1  0
111 75  1  0
 38 29  1  0
 60 50  1  0
 94 80  1  0
113 98  1  0
 93 84  1  0
113104  1  0
M  END
$$$$
